# Choose the method to be evaluated. For molecular dynamics use @MDRUNNING and optimization
# @MDPREPARE. The default option is optimization procedure.

@MDRUNNING

# Structure settings. Type the coordinates of the lattice vectors of the unit cell.

&STRUCT
 cell
  20.0 0.0  0.0
  0.0 20.0  0.0
  0.0  0.0 20.0
  reuse 0
&END

# Optimization settings. Type variables related to the optimization procedure. Defaults:

&OPT
 dfmax 1.e-2             # intra and intermolecular gradient force tolerance (default: 1.e-3).
 gamma 1.e-9             # ... (default: 1.e-8).
 ntrialmax 100 100       # limit of inter and intramolecular steps (default: 100000 100000).
 rcutoff 7.0 0.1         # cutoff radius and width (default: 10 A 0.1 A).
&END

# Molecular dynamics setting. Type variables related to the MD running.

&MD
nhist 300                               # Qty of frames: (ntrialmax-nrelax)/nhist.
preext 1.0                           # External pressure in atm unit.
text 300.0                               # External temperature in K unit.
ntrialmax 150000                         # Total qty of MD cicle.
nrelax 1                               # Qty of steps in the non-equilibrium phase.
timestep 0.001                 # Timestep in ps unit.
ensemble nvt hoover 0.7 0.5 4.9e-5  # Statistical ensemble.
rcutoff 9.0 0.1                        # Cutoff radius and width. Default are 10 and 0.1 A
&END

# Force field settings. Type variables related to the force field description

&FORCE
 $INTRA                           # Openning of the intramolecular section.
  molecule C2H4                   # Extra intramolecular description of the "C2H4" molecule.
  bends* 5                        # To describe extra bonds, bends and/or dihedrals, use:
  3 1 4 harm 3.04 120.0           # ->     bends* 5: modification of the "5th bend" interact.
  bends* 6                        # ->     benbs# 1: modification of all "bend" interaction
  5 2 6 harm 3.04 120.0           #                  ("1" is qty of the respective interact.).
  dihedrals! 2                    # -> dihedrals! 2: additional interactions ("2" is the qty 
  3 1 2 5 amber 1.0 1.1 180.0 2.0 #                  of additional interact. (dihedrals only).
  4 1 2 6 amber 1.0 1.1 180.0 2.0
 $END                             # The $INTRA secion must be finished with the $END word.
 $INTER                           # Openning of the intermolecular section (VW and coulomb).
  electrostatic fscs              # Choose fscs or coul. Default is fscs.
  vdw 2                           # Extra Van der Waals interaction followed by its
  CA CA amber 0.0860 3.8160       # respective qty.
  CA HA amber 0.0359 3.3670       # The paired interaction is described by two kinds
 $END                             # according HICOLM.sys site description of each molec.
&END                              # The $INTER secion must be finished with the $END word.
