# Choose the method to be evaluated. For molecular dynamics use @MDRUNNING and optimization
# @MDPREPARE. The default optin is optimization procedure.

#@MDPREPARE # optimizing initial system
@MDRUNNING

# Structure settings. Type the coordinates of the lattice vectors of the unit cell.

&STRUCT
 cell
  18.0 0.0  0.0
  0.0 18.0  0.0
  0.0  0.0 18.0
  reuse 1
&END

# Molecular dynamics setting. Type variables related to the MD running.

&OPT
 dfmax 1.0e-4             # intra and intermolecular gradient force tolerance (default: 1.e-2)
 gamma 1.e-7              # ... (default: 1.e-7)
 ntrialmax 1 40000      # limit of inter and intramolecular steps (default: 100000 100000)
 nhist 1000
 rcutoff 9.0 0.1          # cutoff radius and width (default: 10 A 0.1 A)
&END

&MD
 nhist 100
 preext 1.0
 text 298.0
 ntrialmax 10000
 nrelax 100
 timestep 0.001
 ensemble npt berendsen 0.5 0.5 4.9e-5
 rcutoff 8.5 0.1
&END

# Force field variables

&FORCE
 $INTER
  electrostatic fscs
 $END
&END
